@<TRIPOS>MOLECULE
XZI
  201   210     7     0     1 
SMALL
USER_CHARGES
@<TRIPOS>ATOM
  1 C       3.540003    1.419779    0.000002 C     1 XZI    -0.0402 ****
  2 C1      4.003993    2.436652   -1.073861 C     1 XZI    -0.0867 ****
  3 H       3.279065    3.253650   -1.175850 H     1 XZI     0.0371 ****
  4 H1      4.101020    1.973482   -2.060216 H     1 XZI     0.0371 ****
  5 H2      4.964087    2.895637   -0.815833 H     1 XZI     0.0371 ****
  6 C2      3.366048    2.201683    1.325810 C     1 XZI    -0.0867 ****
  7 H3      4.320957    2.573609    1.708766 H     1 XZI     0.0371 ****
  8 H4      2.902153    1.584883    2.102588 H     1 XZI     0.0371 ****
  9 H5      2.714262    3.071465    1.184847 H     1 XZI     0.0371 ****
 10 C3      2.135904    0.928797   -0.425029 C     1 XZI    -0.0867 ****
 11 H6      1.432181    1.766512   -0.490012 H     1 XZI     0.0371 ****
 12 H7      1.715993    0.215976    0.290790 H     1 XZI     0.0371 ****
 13 H8      2.151891    0.454856   -1.410910 H     1 XZI     0.0371 ****
 14 Si      4.568707    0.214030    0.159959 S     1 XZI     0.0419 ****
 15 C5      4.182717   -0.743837    1.311789 C     1 XZI    -0.0844 ****
 16 H9      4.186722   -0.241003    2.284500 H     1 XZI     0.0422 ****
 17 H10     4.898821   -1.571003    1.391798 H     1 XZI     0.0422 ****
 18 H11     3.194879   -1.188713    1.159812 H     1 XZI     0.0422 ****
 19 C6      4.674636   -0.642767   -1.123741 C     1 XZI    -0.0844 ****
 20 H12     3.727855   -1.134608   -1.365678 H     1 XZI     0.0422 ****
 21 H13     5.424782   -1.435983   -1.006719 H     1 XZI     0.0422 ****
 22 H14     4.985682   -0.050740   -1.990793 H     1 XZI     0.0422 ****
 23 C7      5.934675    0.730962    0.454941 C     1 XZI    -0.0893 ****
 24 C8      7.051252    1.121767    0.667850 C     1 XZI    -0.1502 ****
 25 C9      8.420164    1.589686    0.898837 C     1 XZI     0.2237 ****
 26 H15     8.533221    1.936818    1.932246 H     1 XZI     0.0415 ****
 27 H16     8.647115    2.421386    0.222091 H     1 XZI     0.0415 ****
 28 O       9.326211    0.514560    0.660806 O     1 XZI    -0.4066 ****
 29 C10    10.682420    0.934568    0.756833 C     1 XZI     0.1319 ****
 30 H17    10.871510    1.361733    1.748292 H     1 XZI     0.0242 ****
 31 H18    10.889468    1.692603   -0.007189 H     1 XZI     0.0242 ****
 32 C2     11.577251   -0.296471    0.534878 C     2 rZIN    0.1002 ****
 33 C6     13.101972    0.075662    0.623908 C     2 rZIN    0.0316 ****
 34 N1     13.449560    0.610407    1.904920 N     2 rZIN    0.0499 ****
 35 C4     14.361839    1.574612    2.139781 C     2 rZIN   -0.1697 ****
 36 C7     14.412739    1.666244    3.446584 C     2 rZIN    0.2301 ****
 37 N10    13.517573    0.752597    3.995758 N     2 rZIN   -0.3501 ****
 38 N13    12.975669    0.149895    3.083897 N     2 rZIN   -0.1719 ****
 39 C16    15.298940    2.497802    4.230212 C     2 rZIN    0.1265 ****
 40 O17    16.120238    1.518603    4.876172 O     2 rZIN   -0.4258 ****
 41 C18    17.051902    2.119076    5.771749 C     2 rZIN    0.1116 ****
 42 C19    17.901181    0.993964    6.483148 C     2 rZIN    0.0347 ****
 43 H18    17.202481    0.340980    7.030719 H     2 rZIN    0.0760 ****
 44 H19    18.437034    0.422924    5.709213 H     2 rZIN    0.0760 ****
 45 N3     18.871972    1.547091    7.432239 N     2 rZIN   -0.2086 ****
 46 C3     18.662674    1.798011    8.775056 C     2 rZIN   -0.2528 ****
 47 C5     19.826161    2.180179    9.291279 C     2 rZIN    0.2944 ****
 48 N6     20.820129    2.167498    8.277244 N     2 rZIN   -0.6586 ****
 49 C9     20.243592    1.785658    7.195366 C     2 rZIN    0.3927 ****
 50 H22    20.735753    1.659707    6.260481 H     2 rZIN    0.0618 ****
 51 H21    19.995710    2.441425   10.319131 H     2 rZIN    0.0436 ****
 52 H20    17.747206    1.698124    9.306007 H     2 rZIN    0.1790 ****
 53 H16    17.715029    2.790225    5.208168 H     2 rZIN    0.0427 ****
 54 H17    16.501443    2.695641    6.529751 H     2 rZIN    0.0427 ****
 55 H14    15.890003    3.181174    3.606313 H     2 rZIN    0.0503 ****
 56 H15    14.735211    3.029552    5.013702 H     2 rZIN    0.0503 ****
 57 H1     14.941126    2.110416    1.427524 H     2 rZIN    0.2143 ****
 58 H2     13.366678    0.796986   -0.154846 H     2 rZIN    0.0892 ****
 59 H3     13.684372   -0.844983    0.471515 H     2 rZIN    0.0892 ****
 60 H4     11.380650   -0.720139   -0.462145 H     2 rZIN    0.0937 ****
 61 O10    11.262359   -1.269579    1.562692 O     2 rZIN   -0.4459 ****
 62 C11     9.945936   -1.784151    1.426138 C     2 rZIN    0.7412 ****
 63 O12     9.221094   -1.441520    0.484131 O     2 rZIN   -0.5756 ****
 64 N2      9.451069   -2.694408    2.351265 N     2 rZIN   -0.4924 ****
 65 H8     10.020154   -2.980383    3.126100 H     2 rZIN    0.3149 ****
 66 C14     8.123992   -3.178883    2.207909 C     2 rZIN    0.0748 ****
 67 H9      7.443968   -2.320037    2.119874 H     2 rZIN    0.0700 ****
 68 H10     8.051717   -3.771536    1.280468 H     2 rZIN    0.0700 ****
 69 C3      7.697227   -4.027923    3.417226 C     3 INM    -0.1409 ****
 70 H5      7.744735   -3.421989    4.332861 H     3 INM     0.0620 ****
 71 H6      8.368882   -4.891539    3.521377 H     3 INM     0.0620 ****
 72 C4      6.265289   -4.549381    3.260195 C     3 INM     0.0626 ****
 73 H7      6.178714   -5.170197    2.358698 H     3 INM     0.0687 ****
 74 H8      5.987930   -5.170373    4.123469 H     3 INM     0.0687 ****
 75 N5      5.353749   -3.455742    3.163364 N     3 INM     0.0419 ****
 76 N9      5.686679   -2.143092    3.232970 N     3 INM    -0.1624 ****
 77 N8      4.669423   -1.462151    3.112933 N     3 INM    -0.3397 ****
 78 C6      4.021521   -3.560605    2.986507 C     3 INM    -0.1853 ****
 79 H9      3.456259   -4.453744    2.894293 H     3 INM     0.2075 ****
 80 C7      3.571252   -2.328779    2.951803 C     3 INM     0.2538 ****
 81 C10     2.144440   -1.920025    2.772487 C     3 INM     0.1236 ****
 82 H10     1.848305   -1.279372    3.614905 H     3 INM     0.0495 ****
 83 H11     2.064192   -1.303631    1.866165 H     3 INM     0.0495 ****
 84 O11     1.302869   -3.064975    2.679623 O     3 INM    -0.4163 ****
 85 C12    -0.043419   -2.637685    2.506823 C     3 INM     0.1374 ****
 86 H12    -0.345164   -2.023208    3.367851 H     3 INM     0.0287 ****
 87 H13    -0.123093   -2.043032    1.586040 H     3 INM     0.0287 ****
 88 C7     -0.930196   -3.890570    2.410136 C     4 rNMN    0.1124 ****
 89 C6     -2.418632   -3.518279    2.220208 C     4 rNMN    0.0242 ****
 90 N10    -2.889446   -2.737406    3.347626 N     4 rNMN    0.0451 ****
 91 N3     -3.087635   -1.401023    3.345468 N     4 rNMN   -0.1851 ****
 92 N2     -3.490621   -1.042660    4.450944 N     4 rNMN   -0.3370 ****
 93 C1     -3.586463   -2.165312    5.285253 C     4 rNMN    0.2273 ****
 94 C5     -3.204433   -3.217054    4.579405 C     4 rNMN   -0.1743 ****
 95 H16    -3.144508   -4.227053    4.905411 H     4 rNMN    0.2153 ****
 96 C32    -4.012996   -2.152416    6.736828 C     4 rNMN    0.1155 ****
 97 O31    -5.227317   -1.319819    6.896730 O     4 rNMN   -0.4066 ****
 98 C12    -5.782809   -1.103985    8.274353 C     4 rNMN    0.1571 ****
 99 C4     -4.728886   -0.356905    9.101563 C     4 rNMN   -0.0988 ****
100 C10    -5.126986   -0.219748   10.602624 C     4 rNMN    0.2030 ****
101 N      -6.373325   -0.926782   10.956630 N     4 rNMN   -0.5841 ****
102 C2     -6.660640   -2.248776   10.368917 C     4 rNMN    0.2030 ****
103 C3     -5.964129   -2.454629    8.990563 C     4 rNMN   -0.0988 ****
104 H3     -6.541415   -3.189678    8.386234 H     4 rNMN    0.0564 ****
105 H4     -4.953707   -2.904557    9.123251 H     4 rNMN    0.0564 ****
106 C13    -8.188588   -2.317178   10.172805 C     4 rNMN   -0.1009 ****
107 H5     -8.537759   -1.550731    9.451334 H     4 rNMN    0.0402 ****
108 H6     -8.715487   -2.150261   11.137719 H     4 rNMN    0.0402 ****
109 H7     -8.490540   -3.318755    9.792757 H     4 rNMN    0.0402 ****
110 C16    -6.275353   -3.351463   11.375595 C     4 rNMN   -0.1009 ****
111 H8     -5.189915   -3.357255   11.582512 H     4 rNMN    0.0402 ****
112 H9     -6.553266   -4.356644   10.995496 H     4 rNMN    0.0402 ****
113 H10    -6.796031   -3.181793   12.344551 H     4 rNMN    0.0402 ****
114 O      -7.778924   -0.037064    9.552343 O     4 rNMN    0.1643 ****
115 LP     -7.799776    0.411970    9.531511 L     4 rNMN   -0.1056 ****
116 LP     -8.043292   -0.287762    9.288222 L     4 rNMN   -0.1056 ****
117 C17    -5.377900    1.271023   10.896295 C     4 rNMN   -0.1009 ****
118 H11    -5.658593    1.393556   11.942381 H     4 rNMN    0.0402 ****
119 H12    -6.183359    1.636624   10.259371 H     4 rNMN    0.0402 ****
120 H24    -4.469881    1.839427   10.694999 H     4 rNMN    0.0402 ****
121 C9     -3.982424   -0.693180   11.519423 C     4 rNMN   -0.1009 ****
122 H14    -3.725783   -1.751573   11.320957 H     4 rNMN    0.0402 ****
123 H15    -4.275713   -0.594248   12.586435 H     4 rNMN    0.0402 ****
124 H22    -3.063687   -0.093288   11.345145 H     4 rNMN    0.0402 ****
125 H1     -3.778525   -0.936941    9.025221 H     4 rNMN    0.0564 ****
126 H2     -4.492738    0.630352    8.645135 H     4 rNMN    0.0564 ****
127 H23    -6.703301   -0.551431    8.085997 H     4 rNMN    0.0870 ****
128 H33    -3.204205   -1.679431    7.311234 H     4 rNMN    0.0668 ****
129 H34    -4.170711   -3.177095    7.098442 H     4 rNMN    0.0668 ****
130 H17    -2.992044   -4.456424    2.146139 H     4 rNMN    0.0870 ****
131 H18    -2.515087   -2.933221    1.294895 H     4 rNMN    0.0870 ****
132 H19    -0.835239   -4.480624    3.332427 H     4 rNMN    0.1016 ****
133 O10    -0.472777   -4.686371    1.244064 O     4 rNMN   -0.4271 ****
134 C11    -0.774613   -6.068938    1.393503 C     4 rNMN    0.7531 ****
135 O12    -1.302616   -6.468573    2.432411 O     4 rNMN   -0.5616 ****
136 N13    -0.432661   -7.004204    0.408035 N     4 rNMN   -0.4914 ****
137 H25     0.006415   -6.710524   -0.432806 H     4 rNMN    0.3271 ****
138 C14    -0.697369   -8.395349    0.627430 C     4 rNMN    0.0801 ****
139 H26    -0.358841   -8.671668    1.636908 H     4 rNMN    0.0735 ****
140 H27    -1.781563   -8.566036    0.570940 H     4 rNMN    0.0735 ****
141 C3      0.036572   -9.279670   -0.394700 C     5 MNP    -0.1409 ****
142 H5      1.120900   -9.119495   -0.314838 H     5 MNP     0.0620 ****
143 H6     -0.291536   -9.023748   -1.411877 H     5 MNP     0.0620 ****
144 C4     -0.247990  -10.766296   -0.158074 C     5 MNP     0.0626 ****
145 H7     -1.323874  -10.969746   -0.239835 H     5 MNP     0.0687 ****
146 H8      0.267722  -11.378643   -0.910984 H     5 MNP     0.0687 ****
147 N5      0.202572  -11.150506    1.140273 N     5 MNP     0.0419 ****
148 N9      0.823962  -10.339125    2.031492 N     5 MNP    -0.1624 ****
149 N8      1.078038  -10.979206    3.050630 N     5 MNP    -0.3397 ****
150 C6      0.078045  -12.379444    1.680003 C     5 MNP    -0.1853 ****
151 H9     -0.364552  -13.233480    1.232285 H     5 MNP     0.2075 ****
152 C7      0.617466  -12.298063    2.873212 C     5 MNP     0.2538 ****
153 C10     0.723007  -13.409979    3.866957 C     5 MNP     0.1236 ****
154 H10     1.777752  -13.538748    4.147550 H     5 MNP     0.0495 ****
155 H11     0.188221  -13.118809    4.781848 H     5 MNP     0.0495 ****
156 O11     0.185352  -14.614493    3.330441 O     5 MNP    -0.4163 ****
157 C12     0.300066  -15.646758    4.303168 C     5 MNP     0.1374 ****
158 H12     1.360263  -15.793439    4.557070 H     5 MNP     0.0287 ****
159 H13    -0.257295  -15.361718    5.206441 H     5 MNP     0.0287 ****
160 C23    -0.285911  -16.934452    3.699911 C     6 rNPp    0.1216 ****
161 C1     -0.200899  -18.134461    4.710254 C     6 rNPp    0.0269 ****
162 N2      1.158273  -18.498535    4.996954 N     6 rNPp    0.5767 ****
163 N6      1.734948  -18.434660    6.208158 N     6 rNPp   -0.5541 ****
164 N7      2.959209  -18.862921    6.063930 N     6 rNPp    0.4846 ****
165 C8      3.191402  -19.209636    4.757976 C     6 rNPp   -0.3345 ****
166 C9      2.021421  -18.973944    4.063170 C     6 rNPp   -0.2690 ****
167 H20     1.742078  -19.100089    3.017151 H     6 rNPp    0.2060 ****
168 C10     4.511375  -19.720229    4.368117 C     6 rNPp    0.4595 ****
169 C11     4.845946  -20.101690    3.065445 C     6 rNPp   -0.2234 ****
170 C12     6.135666  -20.571754    2.822753 C     6 rNPp   -0.1173 ****
171 C13     7.045206  -20.646277    3.879161 C     6 rNPp   -0.1052 ****
172 C14     6.625807  -20.244409    5.147479 C     6 rNPp    0.0182 ****
173 N15     5.391972  -19.793538    5.385370 N     6 rNPp   -0.1967 ****
174 CU21    4.516365  -19.093467    7.377608 C     6 rNPp   -0.0600 ****
175 I22     5.927733  -19.132912    9.379853 I     6 rNPp   -0.4356 ****
176 H19     7.286538  -20.277645    6.013753 H     6 rNPp    0.1234 ****
177 H18     8.062966  -21.008163    3.725913 H     6 rNPp    0.1357 ****
178 H17     6.426528  -20.876757    1.818614 H     6 rNPp    0.1498 ****
179 H16     4.115491  -20.033235    2.259313 H     6 rNPp    0.1603 ****
180 H1     -0.688694  -18.992498    4.226901 H     6 rNPp    0.0896 ****
181 H2     -0.717358  -17.883335    5.643754 H     6 rNPp    0.0896 ****
182 H8      0.273400  -17.203739    2.794229 H     6 rNPp    0.1049 ****
183 O25    -1.695179  -16.679540    3.368427 O     6 rNPp   -0.4364 ****
184 C26    -2.566018  -16.283628    4.428652 C     6 rNPp    0.7396 ****
185 O27    -2.177031  -16.142335    5.595429 O     6 rNPp   -0.5745 ****
186 N28    -3.906174  -16.057031    4.142371 N     6 rNPp   -0.5029 ****
187 H12    -4.244293  -16.168891    3.213292 H     6 rNPp    0.3233 ****
188 C13    -4.836195  -15.652835    5.195524 C     7 PBX     0.1710 ****
189 H6     -4.491689  -14.700096    5.629122 H     7 PBX     0.0522 ****
190 H7     -4.858145  -16.434404    5.970681 H     7 PBX     0.0522 ****
191 C3     -6.237612  -15.458631    4.679432 C     7 PBX    -0.1458 ****
192 C5     -7.191954  -15.034507    5.504607 C     7 PBX    -0.1388 ****
193 C7     -8.557936  -14.843605    5.010772 C     7 PBX    -0.1438 ****
194 C9     -8.848201  -15.092364    3.733762 C     7 PBX    -0.1432 ****
195 C11    -7.798841  -15.559347    2.822759 C     7 PBX    -0.1438 ****
196 H5     -8.029663  -15.758710    1.803411 H     7 PBX     0.1163 ****
197 H4     -9.843380  -14.952481    3.375237 H     7 PBX     0.1163 ****
198 H3     -9.315094  -14.506420    5.669938 H     7 PBX     0.1163 ****
199 H2     -6.963287  -14.835313    6.521344 H     7 PBX     0.1150 ****
200 C1     -6.555652  -15.733762    3.272955 C     7 PBX    -0.1388 ****
201 H1     -5.795787  -16.071516    2.613980 H     7 PBX     0.1150 ****
@<TRIPOS>BOND
    1    29    30 1
    2    29    31 1
    3    29    32 1
    4    28    29 1
    5    25    26 1
    6    25    27 1
    7    25    28 1
    8    24    25 1
    9    23    24 1
   10    19    20 1
   11    19    21 1
   12    19    22 1
   13    15    16 1
   14    15    17 1
   15    15    18 1
   16    14    15 1
   17    14    19 1
   18    14    23 1
   19    10    11 1
   20    10    12 1
   21    10    13 1
   22     6     7 1
   23     6     8 1
   24     6     9 1
   25     2     3 1
   26     2     4 1
   27     2     5 1
   28     1     2 1
   29     1     6 1
   30     1    10 1
   31     1    14 1
   32    66    67 1
   33    66    68 1
   34    66    69 1
   35    64    65 1
   36    64    66 1
   37    62    63 1
   38    62    64 1
   39    61    62 1
   40    49    50 1
   41    48    49 1
   42    47    48 1
   43    47    51 1
   44    46    47 1
   45    46    52 1
   46    45    46 1
   47    45    49 1
   48    42    43 1
   49    42    44 1
   50    42    45 1
   51    41    42 1
   52    41    53 1
   53    41    54 1
   54    40    41 1
   55    39    40 1
   56    39    55 1
   57    39    56 1
   58    37    38 1
   59    36    37 1
   60    36    39 1
   61    35    36 1
   62    35    57 1
   63    34    35 1
   64    34    38 1
   65    33    34 1
   66    33    58 1
   67    33    59 1
   68    32    33 1
   69    32    60 1
   70    32    61 1
   71    85    86 1
   72    85    87 1
   73    85    88 1
   74    84    85 1
   75    81    82 1
   76    81    83 1
   77    81    84 1
   78    80    81 1
   79    78    79 1
   80    78    80 1
   81    77    80 1
   82    76    77 1
   83    75    76 1
   84    75    78 1
   85    72    73 1
   86    72    74 1
   87    72    75 1
   88    69    70 1
   89    69    71 1
   90    69    72 1
   91   138   139 1
   92   138   140 1
   93   138   141 1
   94   136   137 1
   95   136   138 1
   96   134   135 1
   97   134   136 1
   98   133   134 1
   99   121   122 1
  100   121   123 1
  101   121   124 1
  102   117   118 1
  103   117   119 1
  104   117   120 1
  105   114   115 1
  106   114   116 1
  107   110   111 1
  108   110   112 1
  109   110   113 1
  110   106   107 1
  111   106   108 1
  112   106   109 1
  113   103   104 1
  114   103   105 1
  115   102   103 1
  116   102   106 1
  117   102   110 1
  118   101   102 1
  119   101   114 1
  120   100   101 1
  121   100   117 1
  122   100   121 1
  123    99   100 1
  124    99   125 1
  125    99   126 1
  126    98    99 1
  127    98   127 1
  128    98   103 1
  129    97    98 1
  130    96    97 1
  131    96   128 1
  132    96   129 1
  133    94    95 1
  134    93    94 1
  135    93    96 1
  136    92    93 1
  137    91    92 1
  138    90    91 1
  139    90    94 1
  140    89    90 1
  141    89   130 1
  142    89   131 1
  143    88    89 1
  144    88   132 1
  145    88   133 1
  146   157   158 1
  147   157   159 1
  148   157   160 1
  149   156   157 1
  150   153   154 1
  151   153   155 1
  152   153   156 1
  153   152   153 1
  154   150   151 1
  155   150   152 1
  156   149   152 1
  157   148   149 1
  158   147   148 1
  159   147   150 1
  160   144   145 1
  161   144   146 1
  162   144   147 1
  163   141   142 1
  164   141   143 1
  165   141   144 1
  166   186   187 1
  167   186   188 1
  168   184   185 1
  169   184   186 1
  170   183   184 1
  171   174   175 1
  172   173   174 1
  173   172   173 1
  174   172   176 1
  175   171   172 1
  176   171   177 1
  177   170   171 1
  178   170   178 1
  179   169   170 1
  180   169   179 1
  181   168   169 1
  182   168   173 1
  183   166   167 1
  184   165   166 1
  185   165   168 1
  186   164   165 1
  187   164   174 1
  188   163   164 1
  189   162   163 1
  190   162   166 1
  191   161   162 1
  192   161   180 1
  193   161   181 1
  194   160   161 1
  195   160   182 1
  196   160   183 1
  197   200   201 1
  198   195   196 1
  199   195   200 1
  200   194   195 1
  201   194   197 1
  202   193   194 1
  203   193   198 1
  204   192   193 1
  205   192   199 1
  206   191   192 1
  207   191   200 1
  208   188   189 1
  209   188   190 1
  210   188   191 1
@<TRIPOS>SUBSTRUCTURE
      1  XZI              1 ****               0 ****  **** 
      2 rZIN             32 ****               0 ****  **** 
      3  INM             69 ****               0 ****  **** 
      4 rNMN             88 ****               0 ****  **** 
      5  MNP            141 ****               0 ****  **** 
      6 rNPpB            160 ****               0 ****  **** 
      7  PBX            188 ****               0 ****  **** 
