@<TRIPOS>MOLECULE
XZM
  201   210     7     0     1 
SMALL
USER_CHARGES
@<TRIPOS>ATOM
  1 C       3.540003    1.419779    0.000002 C     1 XZM    -0.0402 ****
  2 C1      4.003993    2.436652   -1.073861 C     1 XZM    -0.0867 ****
  3 H       3.279065    3.253650   -1.175850 H     1 XZM     0.0371 ****
  4 H1      4.101020    1.973482   -2.060216 H     1 XZM     0.0371 ****
  5 H2      4.964087    2.895637   -0.815833 H     1 XZM     0.0371 ****
  6 C2      3.366048    2.201683    1.325810 C     1 XZM    -0.0867 ****
  7 H3      4.320957    2.573609    1.708766 H     1 XZM     0.0371 ****
  8 H4      2.902153    1.584883    2.102588 H     1 XZM     0.0371 ****
  9 H5      2.714262    3.071465    1.184847 H     1 XZM     0.0371 ****
 10 C3      2.135904    0.928797   -0.425029 C     1 XZM    -0.0867 ****
 11 H6      1.432181    1.766512   -0.490012 H     1 XZM     0.0371 ****
 12 H7      1.715993    0.215976    0.290790 H     1 XZM     0.0371 ****
 13 H8      2.151891    0.454856   -1.410910 H     1 XZM     0.0371 ****
 14 Si      4.568707    0.214030    0.159959 S     1 XZM     0.0419 ****
 15 C5      4.182717   -0.743837    1.311789 C     1 XZM    -0.0844 ****
 16 H9      4.186722   -0.241003    2.284500 H     1 XZM     0.0422 ****
 17 H10     4.898821   -1.571003    1.391798 H     1 XZM     0.0422 ****
 18 H11     3.194879   -1.188713    1.159812 H     1 XZM     0.0422 ****
 19 C6      4.674636   -0.642767   -1.123741 C     1 XZM    -0.0844 ****
 20 H12     3.727855   -1.134608   -1.365678 H     1 XZM     0.0422 ****
 21 H13     5.424782   -1.435983   -1.006719 H     1 XZM     0.0422 ****
 22 H14     4.985682   -0.050740   -1.990793 H     1 XZM     0.0422 ****
 23 C7      5.934675    0.730962    0.454941 C     1 XZM    -0.0893 ****
 24 C8      7.051252    1.121767    0.667850 C     1 XZM    -0.1502 ****
 25 C9      8.420164    1.589686    0.898837 C     1 XZM     0.2237 ****
 26 H15     8.533221    1.936818    1.932246 H     1 XZM     0.0415 ****
 27 H16     8.647115    2.421386    0.222091 H     1 XZM     0.0415 ****
 28 O       9.326211    0.514560    0.660806 O     1 XZM    -0.4066 ****
 29 C10    10.682420    0.934568    0.756833 C     1 XZM     0.1319 ****
 30 H17    10.871510    1.361733    1.748292 H     1 XZM     0.0242 ****
 31 H18    10.889468    1.692603   -0.007189 H     1 XZM     0.0242 ****
 32 C7     11.577251   -0.296471    0.534878 C     2 rZMN    0.1124 ****
 33 C6     13.076754    0.069507    0.622436 C     2 rZMN    0.0242 ****
 34 N10    13.416701    1.044316   -0.395741 N     2 rZMN    0.0451 ****
 35 N3     13.610892    2.364023   -0.181579 N     2 rZMN   -0.1851 ****
 36 N2     13.886839    2.917555   -1.244761 N     2 rZMN   -0.3370 ****
 37 C1     13.891232    1.959153   -2.268015 C     2 rZMN    0.2273 ****
 38 C5     13.592945    0.792775   -1.719456 C     2 rZMN   -0.1743 ****
 39 H16    13.499179   -0.146349   -2.208560 H     2 rZMN    0.2153 ****
 40 C32    14.152624    2.233146   -3.732861 C     2 rZMN    0.1155 ****
 41 O31    15.339556    3.107095   -3.876962 O     2 rZMN   -0.4066 ****
 42 C12    15.736915    3.570864   -5.248102 C     2 rZMN    0.1571 ****
 43 C4     14.595375    4.427089   -5.811060 C     2 rZMN   -0.0988 ****
 44 C10    14.822696    4.831398   -7.299462 C     2 rZMN    0.2030 ****
 45 N      16.023173    4.223864   -7.906366 N     2 rZMN   -0.5841 ****
 46 C2     16.377411    2.826484   -7.594162 C     2 rZMN    0.2030 ****
 47 C3     15.839978    2.369346   -6.205078 C     2 rZMN   -0.0988 ****
 48 H3     16.482908    1.553284   -5.805761 H     2 rZMN    0.0564 ****
 49 H4     14.822064    1.927398   -6.302692 H     2 rZMN    0.0564 ****
 50 C13    17.917857    2.758354   -7.581993 C     2 rZMN   -0.1009 ****
 51 H5     18.343851    3.395323   -6.780320 H     2 rZMN    0.0402 ****
 52 H6     18.333097    3.101687   -8.554743 H     2 rZMN    0.0402 ****
 53 H7     18.262684    1.712820   -7.418524 H     2 rZMN    0.0402 ****
 54 C16    15.884367    1.907191   -8.729755 C     2 rZMN   -0.1009 ****
 55 H8     14.782607    1.913782   -8.814057 H     2 rZMN    0.0402 ****
 56 H9     16.205319    0.857577   -8.564226 H     2 rZMN    0.0402 ****
 57 H10    16.292965    2.253800   -9.705295 H     2 rZMN    0.0402 ****
 58 O      17.575090    4.886656   -6.531014 O     2 rZMN    0.1643 ****
 59 LP     17.634455    5.329610   -6.478403 L     2 rZMN   -0.1056 ****
 60 LP     17.832117    4.595880   -6.303229 L     2 rZMN   -0.1056 ****
 61 C17    15.035830    6.355619   -7.353526 C     2 rZMN   -0.1009 ****
 62 H11    15.197426    6.663985   -8.386434 H     2 rZMN    0.0402 ****
 63 H12    15.906682    6.622537   -6.754801 H     2 rZMN    0.0402 ****
 64 H24    14.154769    6.860540   -6.957438 H     2 rZMN    0.0402 ****
 65 C9     13.583794    4.499519   -8.153664 C     2 rZMN   -0.1009 ****
 66 H14    13.353346    3.417410   -8.116475 H     2 rZMN    0.0402 ****
 67 H15    13.755619    4.788555   -9.212558 H     2 rZMN    0.0402 ****
 68 H22    12.688987    5.039899   -7.777325 H     2 rZMN    0.0402 ****
 69 H1     13.660828    3.822058   -5.733509 H     2 rZMN    0.0564 ****
 70 H2     14.409574    5.314734   -5.165822 H     2 rZMN    0.0564 ****
 71 H23    16.671464    4.102233   -5.068191 H     2 rZMN    0.0870 ****
 72 H33    13.283577    2.780951   -4.123334 H     2 rZMN    0.0668 ****
 73 H34    14.271178    1.290488   -4.283266 H     2 rZMN    0.0668 ****
 74 H17    13.656954   -0.854542    0.467819 H     2 rZMN    0.0870 ****
 75 H18    13.274836    0.486995    1.619566 H     2 rZMN    0.0870 ****
 76 H19    11.381007   -0.719370   -0.460334 H     2 rZMN    0.1016 ****
 77 O10    11.254975   -1.292397    1.586793 O     2 rZMN   -0.4271 ****
 78 C11    11.541289   -2.621121    1.165549 C     2 rZMN    0.7531 ****
 79 O12    11.950615   -2.822730    0.021158 O     2 rZMN   -0.5616 ****
 80 N13    11.313856   -3.720492    2.003677 N     2 rZMN   -0.4914 ****
 81 H25    10.970972   -3.586881    2.925972 H     2 rZMN    0.3271 ****
 82 C14    11.555468   -5.046324    1.516562 C     2 rZMN    0.0801 ****
 83 H26    11.106724   -5.150493    0.517674 H     2 rZMN    0.0735 ****
 84 H27    12.639553   -5.200582    1.422941 H     2 rZMN    0.0735 ****
 85 C3     10.942497   -6.110435    2.442510 C     3 MNI    -0.1409 ****
 86 H5      9.855686   -5.962472    2.511437 H     3 MNI     0.0620 ****
 87 H6     11.381794   -6.027911    3.446506 H     3 MNI     0.0620 ****
 88 C4     11.202123   -7.526852    1.919650 C     3 MNI     0.0626 ****
 89 H7     12.280852   -7.717935    1.845935 H     3 MNI     0.0687 ****
 90 H8     10.775276   -8.271693    2.605808 H     3 MNI     0.0687 ****
 91 N5     10.609966   -7.689536    0.631545 N     3 MNI     0.0419 ****
 92 N9      9.890934   -6.749473   -0.030279 N     3 MNI    -0.1624 ****
 93 N8      9.525845   -7.208276   -1.111533 N     3 MNI    -0.3397 ****
 94 C6     10.676067   -8.803101   -0.125228 C     3 MNI    -0.1853 ****
 95 H9     11.167897   -9.712056    0.114825 H     3 MNI     0.2075 ****
 96 C7     10.006332   -8.527564   -1.219247 C     3 MNI     0.2538 ****
 97 C10     9.792743   -9.452099   -2.374513 C     3 MNI     0.1236 ****
 98 H10     8.713515   -9.553129   -2.555789 H     3 MNI     0.0495 ****
 99 H11    10.221138   -8.994943   -3.277446 H     3 MNI     0.0495 ****
100 O11    10.389755  -10.719472   -2.119332 O     3 MNI    -0.4163 ****
101 C12    10.169225  -11.569434   -3.239091 C     3 MNI     0.1374 ****
102 H12     9.087606  -11.692852   -3.396785 H     3 MNI     0.0287 ****
103 H13    10.621368  -11.119838   -4.134207 H     3 MNI     0.0287 ****
104 C2     10.821911  -12.929239   -2.938466 C     4 rNIN    0.1002 ****
105 C6     10.626939  -13.937821   -4.128395 C     4 rNIN    0.0316 ****
106 N1     11.217341  -13.457911   -5.340365 N     4 rNIN    0.0499 ****
107 C4     10.738894  -13.651946   -6.585573 C     4 rNIN   -0.1697 ****
108 C7     11.647519  -13.126756   -7.371256 C     4 rNIN    0.2301 ****
109 N10    12.674171  -12.608949   -6.586702 N     4 rNIN   -0.3501 ****
110 N13    12.404912  -12.817040   -5.415123 N     4 rNIN   -0.1719 ****
111 C16    11.665608  -13.140165   -8.817080 C     4 rNIN    0.1265 ****
112 O17    12.794686  -13.979068   -9.085503 O     4 rNIN   -0.4258 ****
113 C18    13.050315  -14.088647  -10.483098 C     4 rNIN    0.1116 ****
114 C19    14.325491  -14.989800  -10.717813 C     4 rNIN    0.0347 ****
115 H18    15.174852  -14.510644  -10.204590 H     4 rNIN    0.0760 ****
116 H19    14.129065  -15.985763  -10.291579 H     4 rNIN    0.0760 ****
117 N3     14.652262  -15.130541  -12.139984 N     4 rNIN   -0.2086 ****
118 C3     15.482973  -14.311568  -12.881014 C     4 rNIN   -0.2528 ****
119 C5     15.601309  -14.856837  -14.087214 C     4 rNIN    0.2944 ****
120 N6     14.849084  -16.060165  -14.137811 N     4 rNIN   -0.6586 ****
121 C9     14.305928  -16.208634  -12.983863 C     4 rNIN    0.3927 ****
122 H22    13.692239  -17.032351  -12.706424 H     4 rNIN    0.0618 ****
123 H21    16.188276  -14.460939  -14.894809 H     4 rNIN    0.0436 ****
124 H20    15.951256  -13.415540  -12.552663 H     4 rNIN    0.1790 ****
125 H16    12.177176  -14.537674  -10.976864 H     4 rNIN    0.0427 ****
126 H17    13.231322  -13.084944  -10.895186 H     4 rNIN    0.0427 ****
127 H14    10.740052  -13.550495   -9.242028 H     4 rNIN    0.0503 ****
128 H15    11.895658  -12.136024   -9.208464 H     4 rNIN    0.0503 ****
129 H1      9.846649  -14.155325   -6.869261 H     4 rNIN    0.2143 ****
130 H2      9.563513  -14.133350   -4.294921 H     4 rNIN    0.0892 ****
131 H3     11.125828  -14.880239   -3.858287 H     4 rNIN    0.0892 ****
132 H4     10.366825  -13.364972   -2.035562 H     4 rNIN    0.0937 ****
133 O10    12.239297  -12.708178   -2.727164 O     4 rNIN   -0.4459 ****
134 C11    12.492754  -11.949051   -1.554183 C     4 rNIN    0.7412 ****
135 O12    11.569418  -11.594573   -0.811239 O     4 rNIN   -0.5756 ****
136 N2     13.793195  -11.597441   -1.215735 N     4 rNIN   -0.4924 ****
137 H8     14.555662  -11.869312   -1.807967 H     4 rNIN    0.3149 ****
138 C14    14.021527  -10.818903   -0.050341 C     4 rNIN    0.0748 ****
139 H9     13.386250   -9.923282   -0.096029 H     4 rNIN    0.0700 ****
140 H10    13.730317  -11.402360    0.839257 H     4 rNIN    0.0700 ****
141 C3     15.491469  -10.379718    0.058436 C     5 INP    -0.1409 ****
142 H5     15.765210   -9.775261   -0.817633 H     5 INP     0.0620 ****
143 H6     16.141972  -11.264381    0.103351 H     5 INP     0.0620 ****
144 C4     15.735231   -9.540014    1.316411 C     5 INP     0.0626 ****
145 H7     15.482259  -10.114471    2.217304 H     5 INP     0.0687 ****
146 H8     16.794322   -9.254979    1.386293 H     5 INP     0.0687 ****
147 N5     14.937976   -8.357132    1.277665 N     5 INP     0.0419 ****
148 N9     14.107958   -7.998299    0.267196 N     5 INP    -0.1624 ****
149 N8     13.570689   -6.927934    0.547481 N     5 INP    -0.3397 ****
150 C6     14.887237   -7.415621    2.241037 C     5 INP    -0.1853 ****
151 H9     15.421316   -7.408236    3.157785 H     5 INP     0.2075 ****
152 C7     14.039981   -6.512125    1.808376 C     5 INP     0.2538 ****
153 C10    13.644168   -5.263205    2.528484 C     5 INP     0.1236 ****
154 H10    13.842961   -4.398919    1.879413 H     5 INP     0.0495 ****
155 H11    12.558972   -5.283048    2.700983 H     5 INP     0.0495 ****
156 O11    14.348557   -5.150525    3.760926 O     5 INP    -0.4163 ****
157 C12    13.944542   -3.954648    4.417874 C     5 INP     0.1374 ****
158 H12    14.174729   -3.090318    3.777604 H     5 INP     0.0287 ****
159 H13    12.863164   -3.990617    4.610561 H     5 INP     0.0287 ****
160 C23    14.718732   -3.856525    5.743184 C     6 rNPp    0.1216 ****
161 C1     14.333811   -2.558725    6.540424 C     6 rNPp    0.0269 ****
162 N2     14.727172   -1.365745    5.844606 N     6 rNPp    0.5767 ****
163 N6     13.884848   -0.419744    5.398263 N     6 rNPp   -0.5541 ****
164 N7     14.619242    0.504108    4.841319 N     6 rNPp    0.4846 ****
165 C8     15.946276    0.168711    4.919612 C     6 rNPp   -0.3345 ****
166 C9     16.018175   -1.046285    5.572128 C     6 rNPp   -0.2690 ****
167 H20    16.852809   -1.688058    5.854288 H     6 rNPp    0.2060 ****
168 C10    16.955859    1.071311    4.352973 C     6 rNPp    0.4595 ****
169 C11    18.330838    0.820566    4.383991 C     6 rNPp   -0.2234 ****
170 C12    19.188826    1.757607    3.810366 C     6 rNPp   -0.1173 ****
171 C13    18.652790    2.907417    3.227769 C     6 rNPp   -0.1052 ****
172 C14    17.268143    3.076475    3.241761 C     6 rNPp    0.0182 ****
173 N15    16.442028    2.182325    3.789716 N     6 rNPp   -0.1967 ****
174 CU21   14.161362    2.275079    3.915229 C     6 rNPp   -0.0600 ****
175 I22    12.992083    4.203744    2.958391 I     6 rNPp   -0.4356 ****
176 H19    16.786776    3.951001    2.804050 H     6 rNPp    0.1234 ****
177 H18    19.293895    3.661486    2.768808 H     6 rNPp    0.1357 ****
178 H17    20.264955    1.590893    3.818890 H     6 rNPp    0.1498 ****
179 H16    18.722124   -0.085866    4.845919 H     6 rNPp    0.1603 ****
180 H1     14.883014   -2.595047    7.491665 H     6 rNPp    0.0896 ****
181 H2     13.254371   -2.533764    6.728577 H     6 rNPp    0.0896 ****
182 H8     15.797049   -3.830050    5.537916 H     6 rNPp    0.1049 ****
183 O25    14.385431   -5.038116    6.551673 O     6 rNPp   -0.4364 ****
184 C26    13.013295   -5.248539    6.886560 C     6 rNPp    0.7396 ****
185 O27    12.110719   -4.486032    6.516986 O     6 rNPp   -0.5745 ****
186 N28    12.677533   -6.347577    7.666753 N     6 rNPp   -0.5029 ****
187 H12    13.385496   -6.972362    7.980531 H     6 rNPp    0.3233 ****
188 C13    11.286462   -6.602588    8.037340 C     7 PBX     0.1710 ****
189 H6     10.691569   -6.735925    7.119338 H     7 PBX     0.0522 ****
190 H7     10.907372   -5.742966    8.611397 H     7 PBX     0.0522 ****
191 C3     11.135844   -7.839760    8.882772 C     7 PBX    -0.1458 ****
192 C5      9.922641   -8.240791    9.255430 C     7 PBX    -0.1388 ****
193 C7      9.767389   -9.442823   10.078377 C     7 PBX    -0.1438 ****
194 C9     10.840211  -10.138852   10.454522 C     7 PBX    -0.1432 ****
195 C11    12.177568   -9.699437   10.045196 C     7 PBX    -0.1438 ****
196 H5     13.034546  -10.254022   10.345395 H     7 PBX     0.1163 ****
197 H4     10.725737  -11.014408   11.053510 H     7 PBX     0.1163 ****
198 H3      8.800775   -9.759058   10.373561 H     7 PBX     0.1163 ****
199 H2      9.067152   -7.688781    8.956856 H     7 PBX     0.1150 ****
200 C1     12.318470   -8.604663    9.296709 C     7 PBX    -0.1388 ****
201 H1     13.286133   -8.286343    9.000026 H     7 PBX     0.1150 ****
@<TRIPOS>BOND
    1    29    30 1
    2    29    31 1
    3    29    32 1
    4    28    29 1
    5    25    26 1
    6    25    27 1
    7    25    28 1
    8    24    25 1
    9    23    24 1
   10    19    20 1
   11    19    21 1
   12    19    22 1
   13    15    16 1
   14    15    17 1
   15    15    18 1
   16    14    15 1
   17    14    19 1
   18    14    23 1
   19    10    11 1
   20    10    12 1
   21    10    13 1
   22     6     7 1
   23     6     8 1
   24     6     9 1
   25     2     3 1
   26     2     4 1
   27     2     5 1
   28     1     2 1
   29     1     6 1
   30     1    10 1
   31     1    14 1
   32    82    83 1
   33    82    84 1
   34    82    85 1
   35    80    81 1
   36    80    82 1
   37    78    79 1
   38    78    80 1
   39    77    78 1
   40    65    66 1
   41    65    67 1
   42    65    68 1
   43    61    62 1
   44    61    63 1
   45    61    64 1
   46    58    59 1
   47    58    60 1
   48    54    55 1
   49    54    56 1
   50    54    57 1
   51    50    51 1
   52    50    52 1
   53    50    53 1
   54    47    48 1
   55    47    49 1
   56    46    47 1
   57    46    50 1
   58    46    54 1
   59    45    46 1
   60    45    58 1
   61    44    45 1
   62    44    61 1
   63    44    65 1
   64    43    44 1
   65    43    69 1
   66    43    70 1
   67    42    43 1
   68    42    71 1
   69    42    47 1
   70    41    42 1
   71    40    41 1
   72    40    72 1
   73    40    73 1
   74    38    39 1
   75    37    38 1
   76    37    40 1
   77    36    37 1
   78    35    36 1
   79    34    35 1
   80    34    38 1
   81    33    34 1
   82    33    74 1
   83    33    75 1
   84    32    33 1
   85    32    76 1
   86    32    77 1
   87   101   102 1
   88   101   103 1
   89   101   104 1
   90   100   101 1
   91    97    98 1
   92    97    99 1
   93    97   100 1
   94    96    97 1
   95    94    95 1
   96    94    96 1
   97    93    96 1
   98    92    93 1
   99    91    92 1
  100    91    94 1
  101    88    89 1
  102    88    90 1
  103    88    91 1
  104    85    86 1
  105    85    87 1
  106    85    88 1
  107   138   139 1
  108   138   140 1
  109   138   141 1
  110   136   137 1
  111   136   138 1
  112   134   135 1
  113   134   136 1
  114   133   134 1
  115   121   122 1
  116   120   121 1
  117   119   120 1
  118   119   123 1
  119   118   119 1
  120   118   124 1
  121   117   118 1
  122   117   121 1
  123   114   115 1
  124   114   116 1
  125   114   117 1
  126   113   114 1
  127   113   125 1
  128   113   126 1
  129   112   113 1
  130   111   112 1
  131   111   127 1
  132   111   128 1
  133   109   110 1
  134   108   109 1
  135   108   111 1
  136   107   108 1
  137   107   129 1
  138   106   107 1
  139   106   110 1
  140   105   106 1
  141   105   130 1
  142   105   131 1
  143   104   105 1
  144   104   132 1
  145   104   133 1
  146   157   158 1
  147   157   159 1
  148   157   160 1
  149   156   157 1
  150   153   154 1
  151   153   155 1
  152   153   156 1
  153   152   153 1
  154   150   151 1
  155   150   152 1
  156   149   152 1
  157   148   149 1
  158   147   148 1
  159   147   150 1
  160   144   145 1
  161   144   146 1
  162   144   147 1
  163   141   142 1
  164   141   143 1
  165   141   144 1
  166   186   187 1
  167   186   188 1
  168   184   185 1
  169   184   186 1
  170   183   184 1
  171   174   175 1
  172   173   174 1
  173   172   173 1
  174   172   176 1
  175   171   172 1
  176   171   177 1
  177   170   171 1
  178   170   178 1
  179   169   170 1
  180   169   179 1
  181   168   169 1
  182   168   173 1
  183   166   167 1
  184   165   166 1
  185   165   168 1
  186   164   165 1
  187   164   174 1
  188   163   164 1
  189   162   163 1
  190   162   166 1
  191   161   162 1
  192   161   180 1
  193   161   181 1
  194   160   161 1
  195   160   182 1
  196   160   183 1
  197   200   201 1
  198   195   196 1
  199   195   200 1
  200   194   195 1
  201   194   197 1
  202   193   194 1
  203   193   198 1
  204   192   193 1
  205   192   199 1
  206   191   192 1
  207   191   200 1
  208   188   189 1
  209   188   190 1
  210   188   191 1
@<TRIPOS>SUBSTRUCTURE
      1  XZM              1 ****               0 ****  **** 
      2 rZMN             32 ****               0 ****  **** 
      3  MNI             85 ****               0 ****  **** 
      4 rNIN            104 ****               0 ****  **** 
      5  INP            141 ****               0 ****  **** 
      6 rNPpB            160 ****               0 ****  **** 
      7  PBX            188 ****               0 ****  **** 
