@<TRIPOS>MOLECULE
XZM
  201   210     7     0     1 
SMALL
USER_CHARGES
@<TRIPOS>ATOM
  1 C       3.540003    1.419779    0.000002 C     1 XZM    -0.0402 ****
  2 C1      4.003993    2.436652   -1.073861 C     1 XZM    -0.0867 ****
  3 H       3.279065    3.253650   -1.175850 H     1 XZM     0.0371 ****
  4 H1      4.101020    1.973482   -2.060216 H     1 XZM     0.0371 ****
  5 H2      4.964087    2.895637   -0.815833 H     1 XZM     0.0371 ****
  6 C2      3.366048    2.201683    1.325810 C     1 XZM    -0.0867 ****
  7 H3      4.320957    2.573609    1.708766 H     1 XZM     0.0371 ****
  8 H4      2.902153    1.584883    2.102588 H     1 XZM     0.0371 ****
  9 H5      2.714262    3.071465    1.184847 H     1 XZM     0.0371 ****
 10 C3      2.135904    0.928797   -0.425029 C     1 XZM    -0.0867 ****
 11 H6      1.432181    1.766512   -0.490012 H     1 XZM     0.0371 ****
 12 H7      1.715993    0.215976    0.290790 H     1 XZM     0.0371 ****
 13 H8      2.151891    0.454856   -1.410910 H     1 XZM     0.0371 ****
 14 Si      4.568707    0.214030    0.159959 S     1 XZM     0.0419 ****
 15 C5      4.182717   -0.743837    1.311789 C     1 XZM    -0.0844 ****
 16 H9      4.186722   -0.241003    2.284500 H     1 XZM     0.0422 ****
 17 H10     4.898821   -1.571003    1.391798 H     1 XZM     0.0422 ****
 18 H11     3.194879   -1.188713    1.159812 H     1 XZM     0.0422 ****
 19 C6      4.674636   -0.642767   -1.123741 C     1 XZM    -0.0844 ****
 20 H12     3.727855   -1.134608   -1.365678 H     1 XZM     0.0422 ****
 21 H13     5.424782   -1.435983   -1.006719 H     1 XZM     0.0422 ****
 22 H14     4.985682   -0.050740   -1.990793 H     1 XZM     0.0422 ****
 23 C7      5.934675    0.730962    0.454941 C     1 XZM    -0.0893 ****
 24 C8      7.051252    1.121767    0.667850 C     1 XZM    -0.1502 ****
 25 C9      8.420164    1.589686    0.898837 C     1 XZM     0.2237 ****
 26 H15     8.533221    1.936818    1.932246 H     1 XZM     0.0415 ****
 27 H16     8.647115    2.421386    0.222091 H     1 XZM     0.0415 ****
 28 O       9.326211    0.514560    0.660806 O     1 XZM    -0.4066 ****
 29 C10    10.682420    0.934568    0.756833 C     1 XZM     0.1319 ****
 30 H17    10.871510    1.361733    1.748292 H     1 XZM     0.0242 ****
 31 H18    10.889468    1.692603   -0.007189 H     1 XZM     0.0242 ****
 32 C7     11.577251   -0.296471    0.534878 C     2 rZMN    0.1124 ****
 33 C6     13.076754    0.069507    0.622436 C     2 rZMN    0.0242 ****
 34 N10    13.416701    1.044316   -0.395741 N     2 rZMN    0.0451 ****
 35 N3     13.610892    2.364023   -0.181579 N     2 rZMN   -0.1851 ****
 36 N2     13.886839    2.917555   -1.244761 N     2 rZMN   -0.3370 ****
 37 C1     13.891232    1.959153   -2.268015 C     2 rZMN    0.2273 ****
 38 C5     13.592945    0.792775   -1.719456 C     2 rZMN   -0.1743 ****
 39 H16    13.499179   -0.146349   -2.208560 H     2 rZMN    0.2153 ****
 40 C32    14.152624    2.233146   -3.732861 C     2 rZMN    0.1155 ****
 41 O31    15.339556    3.107095   -3.876962 O     2 rZMN   -0.4066 ****
 42 C12    15.736915    3.570864   -5.248102 C     2 rZMN    0.1571 ****
 43 C4     14.595375    4.427089   -5.811060 C     2 rZMN   -0.0988 ****
 44 C10    14.822696    4.831398   -7.299462 C     2 rZMN    0.2030 ****
 45 N      16.023173    4.223864   -7.906366 N     2 rZMN   -0.5841 ****
 46 C2     16.377411    2.826484   -7.594162 C     2 rZMN    0.2030 ****
 47 C3     15.839978    2.369346   -6.205078 C     2 rZMN   -0.0988 ****
 48 H3     16.482908    1.553284   -5.805761 H     2 rZMN    0.0564 ****
 49 H4     14.822064    1.927398   -6.302692 H     2 rZMN    0.0564 ****
 50 C13    17.917857    2.758354   -7.581993 C     2 rZMN   -0.1009 ****
 51 H5     18.343851    3.395323   -6.780320 H     2 rZMN    0.0402 ****
 52 H6     18.333097    3.101687   -8.554743 H     2 rZMN    0.0402 ****
 53 H7     18.262684    1.712820   -7.418524 H     2 rZMN    0.0402 ****
 54 C16    15.884367    1.907191   -8.729755 C     2 rZMN   -0.1009 ****
 55 H8     14.782607    1.913782   -8.814057 H     2 rZMN    0.0402 ****
 56 H9     16.205319    0.857577   -8.564226 H     2 rZMN    0.0402 ****
 57 H10    16.292965    2.253800   -9.705295 H     2 rZMN    0.0402 ****
 58 O      17.575090    4.886656   -6.531014 O     2 rZMN    0.1643 ****
 59 LP     17.634455    5.329610   -6.478403 L     2 rZMN   -0.1056 ****
 60 LP     17.832117    4.595880   -6.303229 L     2 rZMN   -0.1056 ****
 61 C17    15.035830    6.355619   -7.353526 C     2 rZMN   -0.1009 ****
 62 H11    15.197426    6.663985   -8.386434 H     2 rZMN    0.0402 ****
 63 H12    15.906682    6.622537   -6.754801 H     2 rZMN    0.0402 ****
 64 H24    14.154769    6.860540   -6.957438 H     2 rZMN    0.0402 ****
 65 C9     13.583794    4.499519   -8.153664 C     2 rZMN   -0.1009 ****
 66 H14    13.353346    3.417410   -8.116475 H     2 rZMN    0.0402 ****
 67 H15    13.755619    4.788555   -9.212558 H     2 rZMN    0.0402 ****
 68 H22    12.688987    5.039899   -7.777325 H     2 rZMN    0.0402 ****
 69 H1     13.660828    3.822058   -5.733509 H     2 rZMN    0.0564 ****
 70 H2     14.409574    5.314734   -5.165822 H     2 rZMN    0.0564 ****
 71 H23    16.671464    4.102233   -5.068191 H     2 rZMN    0.0870 ****
 72 H33    13.283577    2.780951   -4.123334 H     2 rZMN    0.0668 ****
 73 H34    14.271178    1.290488   -4.283266 H     2 rZMN    0.0668 ****
 74 H17    13.656954   -0.854542    0.467819 H     2 rZMN    0.0870 ****
 75 H18    13.274836    0.486995    1.619566 H     2 rZMN    0.0870 ****
 76 H19    11.381007   -0.719370   -0.460334 H     2 rZMN    0.1016 ****
 77 O10    11.254975   -1.292397    1.586793 O     2 rZMN   -0.4271 ****
 78 C11    11.541289   -2.621121    1.165549 C     2 rZMN    0.7531 ****
 79 O12    11.950615   -2.822730    0.021158 O     2 rZMN   -0.5616 ****
 80 N13    11.313856   -3.720492    2.003677 N     2 rZMN   -0.4914 ****
 81 H25    10.970972   -3.586881    2.925972 H     2 rZMN    0.3271 ****
 82 C14    11.555468   -5.046324    1.516562 C     2 rZMN    0.0801 ****
 83 H26    11.106724   -5.150493    0.517674 H     2 rZMN    0.0735 ****
 84 H27    12.639553   -5.200582    1.422941 H     2 rZMN    0.0735 ****
 85 C3     10.942497   -6.110435    2.442510 C     3 MNP    -0.1409 ****
 86 H5      9.855686   -5.962472    2.511437 H     3 MNP     0.0620 ****
 87 H6     11.381794   -6.027911    3.446506 H     3 MNP     0.0620 ****
 88 C4     11.202123   -7.526852    1.919650 C     3 MNP     0.0626 ****
 89 H7     12.280852   -7.717935    1.845935 H     3 MNP     0.0687 ****
 90 H8     10.775276   -8.271693    2.605808 H     3 MNP     0.0687 ****
 91 N5     10.609966   -7.689536    0.631545 N     3 MNP     0.0419 ****
 92 N9      9.890934   -6.749473   -0.030279 N     3 MNP    -0.1624 ****
 93 N8      9.525845   -7.208276   -1.111533 N     3 MNP    -0.3397 ****
 94 C6     10.676067   -8.803101   -0.125228 C     3 MNP    -0.1853 ****
 95 H9     11.167897   -9.712056    0.114825 H     3 MNP     0.2075 ****
 96 C7     10.006332   -8.527564   -1.219247 C     3 MNP     0.2538 ****
 97 C10     9.792743   -9.452099   -2.374513 C     3 MNP     0.1236 ****
 98 H10     8.713515   -9.553129   -2.555789 H     3 MNP     0.0495 ****
 99 H11    10.221138   -8.994943   -3.277446 H     3 MNP     0.0495 ****
100 O11    10.389755  -10.719472   -2.119332 O     3 MNP    -0.4163 ****
101 C12    10.169225  -11.569434   -3.239091 C     3 MNP     0.1374 ****
102 H12     9.087606  -11.692852   -3.396785 H     3 MNP     0.0287 ****
103 H13    10.621368  -11.119838   -4.134207 H     3 MNP     0.0287 ****
104 C23    10.821911  -12.929239   -2.938466 C     4 rNPN    0.1182 ****
105 C1     10.627063  -13.937180   -4.127638 C     4 rNPN    0.0261 ****
106 N2      9.245164  -14.275452   -4.322635 N     4 rNPN    0.5604 ****
107 N6      8.536434  -14.014838   -5.433234 N     4 rNPN   -0.5704 ****
108 N7      7.336964  -14.488184   -5.232636 N     4 rNPN    0.4709 ****
109 C8      7.253145  -15.061333   -3.990012 C     4 rNPN   -0.3443 ****
110 C9      8.492997  -14.924434   -3.397401 C     4 rNPN   -0.2769 ****
111 H20     8.887918  -15.224152   -2.426676 H     4 rNPN    0.2001 ****
112 C10     5.986236  -15.660470   -3.552976 C     4 rNPN    0.4465 ****
113 C11     5.800392  -16.269489   -2.308404 C     4 rNPN   -0.2300 ****
114 C12     4.546987  -16.802513   -2.011591 C     4 rNPN   -0.1208 ****
115 C13     3.525115  -16.712283   -2.958403 C     4 rNPN   -0.1083 ****
116 C14     3.799051  -16.087289   -4.175106 C     4 rNPN    0.0177 ****
117 N15     4.997503  -15.575212   -4.464442 N     4 rNPN   -0.2025 ****
118 CU21    5.643106  -14.521004   -6.387367 C     4 rNPN   -0.0617 ****
119 I22     4.016640  -14.242952   -8.198388 I     4 rNPN   -0.4485 ****
120 H19     3.045609  -15.984002   -4.955975 H     4 rNPN    0.1199 ****
121 H18     2.531709  -17.117348   -2.760038 H     4 rNPN    0.1319 ****
122 H17     4.371000  -17.283473   -1.050536 H     4 rNPN    0.1456 ****
123 H16     6.616312  -16.326142   -1.587872 H     4 rNPN    0.1558 ****
124 H1     11.167804  -14.855276   -3.858380 H     4 rNPN    0.0870 ****
125 H2     11.035254  -13.516618   -5.053772 H     4 rNPN    0.0870 ****
126 H8     10.368065  -13.363785   -2.038023 H     4 rNPN    0.1019 ****
127 O25    12.258847  -12.705129   -2.724249 O     4 rNPN   -0.4492 ****
128 C26    13.004686  -12.112299   -3.787951 C     4 rNPN    0.7187 ****
129 O27    12.487262  -11.779088   -4.862142 O     4 rNPN   -0.5914 ****
130 N28    14.367949  -11.909723   -3.615329 N     4 rNPN   -0.5177 ****
131 H12    14.808160  -12.173796   -2.762976 H     4 rNPN    0.3141 ****
132 C29    15.138995  -11.336869   -4.671979 C     4 rNPN    0.0774 ****
133 H13    14.886983  -11.836602   -5.617790 H     4 rNPN    0.0712 ****
134 H14    14.884224  -10.271932   -4.765802 H     4 rNPN    0.0712 ****
135 C3     16.648233  -11.497060   -4.423014 C     5 PNI    -0.1409 ****
136 H5     16.902569  -12.563827   -4.351449 H     5 PNI     0.0620 ****
137 H6     16.925940  -10.996673   -3.484775 H     5 PNI     0.0620 ****
138 C4     17.473182  -10.881763   -5.557868 C     5 PNI     0.0626 ****
139 H7     17.254353   -9.810201   -5.655199 H     5 PNI     0.0687 ****
140 H8     18.547214  -10.987668   -5.350407 H     5 PNI     0.0687 ****
141 N5     17.172341  -11.533709   -6.791071 N     5 PNI     0.0419 ****
142 N9     16.311115  -12.569594   -6.945881 N     5 PNI    -0.1624 ****
143 N8     16.280598  -12.894870   -8.131699 N     5 PNI    -0.3397 ****
144 C6     17.697867  -11.218263   -7.991663 C     5 PNI    -0.1853 ****
145 H9     18.402064  -10.452789   -8.201131 H     5 PNI     0.2075 ****
146 C7     17.156497  -12.054464   -8.845496 C     5 PNI     0.2538 ****
147 C10    17.423563  -12.104137  -10.315610 C     5 PNI     0.1236 ****
148 H10    17.758671  -13.115982  -10.583332 H     5 PNI     0.0495 ****
149 H11    16.479947  -11.933759  -10.852603 H     5 PNI     0.0495 ****
150 O11    18.395081  -11.129549  -10.681816 O     5 PNI    -0.4163 ****
151 C12    18.620438  -11.204376  -12.084864 C     5 PNI     0.1374 ****
152 H12    18.985965  -12.209192  -12.343194 H     5 PNI     0.0287 ****
153 H13    17.679294  -11.008375  -12.617436 H     5 PNI     0.0287 ****
154 C2     19.671914  -10.144302  -12.453763 C     6 rNIp    0.1031 ****
155 C6     19.985167  -10.154817  -13.994200 C     6 rNIp    0.0326 ****
156 N1     18.823109   -9.871328  -14.779703 N     6 rNIp    0.0514 ****
157 C4     18.532769  -10.401449  -15.984601 C     6 rNIp   -0.1646 ****
158 C7     17.438783   -9.783796  -16.359327 C     6 rNIp    0.2368 ****
159 N10    17.069875   -8.881649  -15.365495 N     6 rNIp   -0.3397 ****
160 N13    17.889055   -8.947005  -14.463790 N     6 rNIp   -0.1668 ****
161 C16    16.747772   -9.919562  -17.622255 C     6 rNIp    0.1302 ****
162 O17    16.949175   -8.626567  -18.203826 O     6 rNIp   -0.4132 ****
163 C18    16.285263   -8.503102  -19.458657 C     6 rNIp    0.1149 ****
164 C19    16.507817   -7.049297  -20.033253 C     6 rNIp    0.0357 ****
165 H18    16.095670   -6.332958  -19.304284 H     6 rNIp    0.0782 ****
166 H19    17.589523   -6.889556  -20.162081 H     6 rNIp    0.0782 ****
167 N3     15.835160   -6.851721  -21.320752 N     6 rNIp   -0.2024 ****
168 C3     14.546921   -6.391414  -21.516924 C     6 rNIp   -0.2452 ****
169 C5     14.374757   -6.246203  -22.826700 C     6 rNIp    0.3030 ****
170 N6     15.571415   -6.602460  -23.503081 N     6 rNIp   -0.6390 ****
171 C9     16.419571   -6.947178  -22.602826 C     6 rNIp    0.4041 ****
172 H22    17.420106   -7.250754  -22.799973 H     6 rNIp    0.0636 ****
173 H21    13.477233   -5.896806  -23.301935 H     6 rNIp    0.0448 ****
174 H20    13.824758   -6.181604  -20.765638 H     6 rNIp    0.1842 ****
175 H16    16.689623   -9.248922  -20.157262 H     6 rNIp    0.0439 ****
176 H17    15.208893   -8.678245  -19.314596 H     6 rNIp    0.0439 ****
177 H14    17.170126  -10.719216  -18.244971 H     6 rNIp    0.0517 ****
178 H15    15.665574  -10.046121  -17.457223 H     6 rNIp    0.0517 ****
179 H1     19.088769  -11.126219  -16.528239 H     6 rNIp    0.2206 ****
180 H2     20.399692  -11.121662  -14.294557 H     6 rNIp    0.0918 ****
181 H3     20.728984   -9.369325  -14.193548 H     6 rNIp    0.0918 ****
182 H4     20.606397  -10.346416  -11.907785 H     6 rNIp    0.0965 ****
183 O10    19.146631   -8.844902  -12.082093 O     6 rNIp   -0.4326 ****
184 C11    19.010832   -8.705776  -10.675465 C     6 rNIp    0.7628 ****
185 O12    19.369388   -9.606611   -9.907283 O     6 rNIp   -0.5584 ****
186 N2     18.476823   -7.542649  -10.135751 N     6 rNIp   -0.4777 ****
187 H8     18.173931   -6.802725  -10.741372 H     6 rNIp    0.3241 ****
188 C13    18.349631   -7.381625   -8.688223 C     7 IBX     0.1710 ****
189 H6     19.350453   -7.451730   -8.232324 H     7 IBX     0.0522 ****
190 H7     17.699677   -8.179442   -8.296751 H     7 IBX     0.0522 ****
191 C3     17.749076   -6.053463   -8.309599 C     7 IBX    -0.1458 ****
192 C5     17.619331   -5.729971   -7.025044 C     7 IBX    -0.1388 ****
193 C7     17.035576   -4.440236   -6.648165 C     7 IBX    -0.1438 ****
194 C9     16.634585   -3.586832   -7.590394 C     7 IBX    -0.1432 ****
195 C11    16.776611   -3.940597   -9.005963 C     7 IBX    -0.1438 ****
196 H5     16.456326   -3.260316   -9.758778 H     7 IBX     0.1163 ****
197 H4     16.210005   -2.647606   -7.314577 H     7 IBX     0.1163 ****
198 H3     16.933349   -4.185984   -5.625235 H     7 IBX     0.1163 ****
199 H2     17.938248   -6.407319   -6.273238 H     7 IBX     0.1150 ****
200 C1     17.307343   -5.115145   -9.348567 C     7 IBX    -0.1388 ****
201 H1     17.410544   -5.371562  -10.372930 H     7 IBX     0.1150 ****
@<TRIPOS>BOND
    1    29    30 1
    2    29    31 1
    3    29    32 1
    4    28    29 1
    5    25    26 1
    6    25    27 1
    7    25    28 1
    8    24    25 1
    9    23    24 1
   10    19    20 1
   11    19    21 1
   12    19    22 1
   13    15    16 1
   14    15    17 1
   15    15    18 1
   16    14    15 1
   17    14    19 1
   18    14    23 1
   19    10    11 1
   20    10    12 1
   21    10    13 1
   22     6     7 1
   23     6     8 1
   24     6     9 1
   25     2     3 1
   26     2     4 1
   27     2     5 1
   28     1     2 1
   29     1     6 1
   30     1    10 1
   31     1    14 1
   32    82    83 1
   33    82    84 1
   34    82    85 1
   35    80    81 1
   36    80    82 1
   37    78    79 1
   38    78    80 1
   39    77    78 1
   40    65    66 1
   41    65    67 1
   42    65    68 1
   43    61    62 1
   44    61    63 1
   45    61    64 1
   46    58    59 1
   47    58    60 1
   48    54    55 1
   49    54    56 1
   50    54    57 1
   51    50    51 1
   52    50    52 1
   53    50    53 1
   54    47    48 1
   55    47    49 1
   56    46    47 1
   57    46    50 1
   58    46    54 1
   59    45    46 1
   60    45    58 1
   61    44    45 1
   62    44    61 1
   63    44    65 1
   64    43    44 1
   65    43    69 1
   66    43    70 1
   67    42    43 1
   68    42    71 1
   69    42    47 1
   70    41    42 1
   71    40    41 1
   72    40    72 1
   73    40    73 1
   74    38    39 1
   75    37    38 1
   76    37    40 1
   77    36    37 1
   78    35    36 1
   79    34    35 1
   80    34    38 1
   81    33    34 1
   82    33    74 1
   83    33    75 1
   84    32    33 1
   85    32    76 1
   86    32    77 1
   87   101   102 1
   88   101   103 1
   89   101   104 1
   90   100   101 1
   91    97    98 1
   92    97    99 1
   93    97   100 1
   94    96    97 1
   95    94    95 1
   96    94    96 1
   97    93    96 1
   98    92    93 1
   99    91    92 1
  100    91    94 1
  101    88    89 1
  102    88    90 1
  103    88    91 1
  104    85    86 1
  105    85    87 1
  106    85    88 1
  107   132   133 1
  108   132   134 1
  109   132   135 1
  110   130   131 1
  111   130   132 1
  112   128   129 1
  113   128   130 1
  114   127   128 1
  115   118   119 1
  116   117   118 1
  117   116   117 1
  118   116   120 1
  119   115   116 1
  120   115   121 1
  121   114   115 1
  122   114   122 1
  123   113   114 1
  124   113   123 1
  125   112   113 1
  126   112   117 1
  127   110   111 1
  128   109   110 1
  129   109   112 1
  130   108   109 1
  131   108   118 1
  132   107   108 1
  133   106   107 1
  134   106   110 1
  135   105   106 1
  136   105   124 1
  137   105   125 1
  138   104   105 1
  139   104   126 1
  140   104   127 1
  141   151   152 1
  142   151   153 1
  143   151   154 1
  144   150   151 1
  145   147   148 1
  146   147   149 1
  147   147   150 1
  148   146   147 1
  149   144   145 1
  150   144   146 1
  151   143   146 1
  152   142   143 1
  153   141   142 1
  154   141   144 1
  155   138   139 1
  156   138   140 1
  157   138   141 1
  158   135   136 1
  159   135   137 1
  160   135   138 1
  161   186   187 1
  162   186   188 1
  163   184   185 1
  164   184   186 1
  165   183   184 1
  166   171   172 1
  167   170   171 1
  168   169   170 1
  169   169   173 1
  170   168   169 1
  171   168   174 1
  172   167   168 1
  173   167   171 1
  174   164   165 1
  175   164   166 1
  176   164   167 1
  177   163   164 1
  178   163   175 1
  179   163   176 1
  180   162   163 1
  181   161   162 1
  182   161   177 1
  183   161   178 1
  184   159   160 1
  185   158   159 1
  186   158   161 1
  187   157   158 1
  188   157   179 1
  189   156   157 1
  190   156   160 1
  191   155   156 1
  192   155   180 1
  193   155   181 1
  194   154   155 1
  195   154   182 1
  196   154   183 1
  197   200   201 1
  198   195   196 1
  199   195   200 1
  200   194   195 1
  201   194   197 1
  202   193   194 1
  203   193   198 1
  204   192   193 1
  205   192   199 1
  206   191   192 1
  207   191   200 1
  208   188   189 1
  209   188   190 1
  210   188   191 1
@<TRIPOS>SUBSTRUCTURE
      1  XZM              1 ****               0 ****  **** 
      2 rZMN             32 ****               0 ****  **** 
      3  MNP             85 ****               0 ****  **** 
      4 rNPN            104 ****               0 ****  **** 
      5  PNI            135 ****               0 ****  **** 
      6 rNIpB            154 ****               0 ****  **** 
      7  IBX            188 ****               0 ****  **** 
